    1009.5       299.80191        18.51624
      84.2       300.11002        17.68170        0.0        0.0
     536.8       300.92786        16.53021        0.0        0.0
    1008.9       302.99822        14.44745        0.0        0.0
    1502.9       305.27487        12.30213        0.0        0.0
    2021.7       308.09706        10.13306        0.0        0.0
    2568.9       311.14745         8.33131        0.0        0.0
    3762.0       316.76030         5.64285        0.0        0.0
    5116.5       323.30795         3.58920        0.0        0.0
    6695.5       331.24605         2.00947        0.0        0.0
    8593.7       339.49718         0.84264        0.0        0.0
   10983.4       346.49364         0.20061        0.0        0.0
   12467.6       349.48844         0.06269        0.0        0.0
   14261.1       354.06008         0.01416        0.0        0.0
   16613.7       374.06218         0.00310        0.0        0.0
   20678.0       489.96620         0.00272        0.0        0.0
   23855.7       590.11452         0.00263        0.0        0.0
   26461.2       680.65926         0.00000        0.0        0.0
   31060.6       860.02319         0.00000        0.0        0.0
